
Note: No compatibility mode selected!


Circuit: UCC27511A Working Test

Doing analysis at TEMP = 27.000000 and TNOM = 27.000000

Using SPARSE 1.3 as Direct Linear Solver
Operating point simulation skipped by 'uic',
  now using transient initial conditions.

No. of Data Rows : 1770
v_gate_high         =  1.200358e+01 at=  5.508976e-05
v_gate_low          =  -4.787727e-07 at=  8.020488e-05
v_outl_high         =  1.207841e+01 at=  5.508976e-05
======================================
  UCC27511A Working Test (OUTL only)
======================================
v_gate_high = 1.200358e+01
v_gate_low = -4.78773e-07
v_outl_high = 1.207841e+01
======================================
Note: Simulation executed from .control section 
