Header
 CHECK KEYWORDS Warn
 Mesh DB "." "mesh"
End
Simulation
 Coordinate System = Cartesian 3D
 Simulation Type = Steady State
 Steady State Max Iterations = 30
 Output File = result.dat
End
Initial Condition 1
 Temperature = 343.150000000000
End
Body 1
 Target Bodies(1) = 1
 Equation = 1
 Material = 1
 Body Force = 1
 Initial Condition = 1
End
Body 2
 Target Bodies(1) = 2
 Equation = 2
 Material = 2
 Initial Condition = 1
End
Body 3
 Target Bodies(1) = 3
 Equation = 1
 Material = 3
 Body Force = 1
 Initial Condition = 1
End
Body 4
 Target Bodies(1) = 4
 Equation = 1
 Material = 4
 Body Force = 1
 Initial Condition = 1
End
Equation 1
 Active Solvers(2) = 1 2
End
Equation 2
 Active Solvers(1) = 2
End
Solver 1
 Equation = Stat Current
 Procedure = "StatCurrentSolve" "StatCurrentSolver"
 Variable = Potential
 Variable DOFs = 1
 Calculate Volume Current = True
 Calculate Joule Heating = True
 Linear System Solver = Direct
 Linear System Direct Method = umfpack
 Nonlinear System Max Iterations = 1
 Steady State Convergence Tolerance = 1e-8
End
Solver 2
 Equation = Heat Equation
 Procedure = "HeatSolve" "HeatSolver"
 Variable = Temperature
 Linear System Solver = Direct
 Linear System Direct Method = umfpack
 Nonlinear System Max Iterations = 1
 Steady State Convergence Tolerance = 1e-8
 Calculate Loads = True
 Calculate Boundary Fluxes = True
End
Solver 3
 Exec Solver = After All
 Equation = SaveScalars
 Procedure = "SaveData" "SaveScalars"
 Variable 1 = Temperature
 Operator 1 = max
 Variable 2 = Temperature
 Operator 2 = min
 Variable 3 = Potential
 Operator 3 = boundary int
 Variable 4 = Potential
 Operator 4 = area
 Filename = scalars.dat
End
Material 1
 Electric Conductivity = Variable Temperature
  Real MATC "55000000.000000000000/(1+0.003930000000*(tx-293.15))"
 Heat Conductivity = 350.000000000000
 Density = 8960
 Heat Capacity = 385
End
Material 2
 Heat Conductivity = 0.250000000000
 Density = 1900
 Heat Capacity = 1000
End
Material 3
 Electric Conductivity = 4500000.000000000000
 Heat Conductivity = 50.000000000000
 Density = 7400
 Heat Capacity = 230
End
Material 4
 Electric Conductivity = 10000000.000000000000
 Heat Conductivity = 100.000000000000
 Density = 8900
 Heat Capacity = 385
End
Body Force 1
 Joule Heat = True
End
Boundary Condition 1
 Target Boundaries(1) = 11
 Current Density BC = True
 Current Density = 21428571.428571417928
 Temperature = 353.986716662039
 Save Scalars = True
End
Boundary Condition 2
 Target Boundaries(1) = 12
 Temperature = 353.150000000000
 Save Scalars = True
End
Boundary Condition 3
 Target Boundaries(1) = 14
 Potential = 0
 Temperature = 353.150000000000
 Save Scalars = True
End
