
Note: No compatibility mode selected!


Circuit: Resonant Tank Circuit (C3 Fix)

Doing analysis at TEMP = 27.000000 and TNOM = 27.000000

Using SPARSE 1.3 as Direct Linear Solver

No. of Data Rows : 70

Initial Transient Solution
--------------------------

Node                                   Voltage
----                                   -------
sw_node                                      0
tank_node                                    0
coil_return                                  0
l_coil#branch                                0
v_switch#branch                              0


No. of Data Rows : 100025
t_cross1            =  1.600004e-04

Error: measure  t_cross2  when(WHEN) : out of interval
 meas tran t_cross2 when v(tank_node)=0 rise=2 td=150u failed!

Warning from checkvalid: vector t_cross2 is not available or has zero length.
Error: RHS "t_cross2 - t_cross1" invalid
Warning from checkvalid: vector t_period is not available or has zero length.
Error: RHS "1 / t_period" invalid
Warning from checkvalid: vector f_measured is not available or has zero length.
Error: RHS "f_measured / 1000" invalid

================================================================
          C3 FIX VERIFICATION - Resonant Tank                   
================================================================

Measured oscillation frequency:
Warning from checkvalid: vector f_measured_khz is not available or has zero length.

Calculated resonant frequency (f = 1/(2π√LC)):
f_calc_khz = 3.097551e+01

Target: 25 kHz ± 1 kHz

Warning from checkvalid: vector f_measured_khz is not available or has zero length.
❌ FAIL: Resonant frequency =  f_measured_khz  kHz (out of spec)

================================================================
ngspice-45.2 done
