
Note: No compatibility mode selected!


Circuit: H3 Zener -5.1V Bias (Simple Test)

Doing analysis at TEMP = 27.000000 and TNOM = 27.000000

Using SPARSE 1.3 as Direct Linear Solver

No. of Data Rows : 1

================================================================
            H3 ZENER VERIFICATION (Simplified)                  
================================================================

Circuit:
  -10V ← R_pull ← VSSA → Zener → Ground (0V)
  +15V ← R_load ← VSSA

Expected: Zener clamps VSSA at -5.1V relative to ground

Results:
v(vssa) = -5.07110e+00
v(emitter) = 0.000000e+00
v_zener = 5.071100e+00

✅ PASS: Zener correctly creates -5.1V bias!
         H3 fix polarity VERIFIED
         V_GS(OFF) will be -5.1V, preventing shoot-through

Explanation:
  - R_pull draws current from VSSA toward -10V rail
  - Current path: neg_rail → R_pull → VSSA → Zener (reverse) → ground
  - Zener breakdown: V_cathode - V_anode = 5.1V
  - With cathode at 0V: 0V - V_VSSA = 5.1V → V_VSSA = -5.1V
  - When gate driver output is LOW, gate connects to VSSA = -5.1V
  - Result: IGBT turns OFF completely, no shoot-through risk

================================================================
ngspice-45.2 done
