
Note: No compatibility mode selected!


Circuit: H3 Zener Negative Bias (Correct Polarity)

Doing analysis at TEMP = 27.000000 and TNOM = 27.000000

Using SPARSE 1.3 as Direct Linear Solver

No. of Data Rows : 25

No. of Data Rows : 1
Error: indexing a scalar (vssa)
  in term: v(vssa)[0]

Error: Can't evaluate "v(vssa)[0]"
Warning from checkvalid: vector v_vssa_op is not available or has zero length.
Error: RHS "v(emitter) - v_vssa_op" invalid

================================================================
        H3 FIX - Zener Negative Bias Verification               
================================================================

Circuit Topology:
  V_supply (+10V) → I_quiescent (5mA) → VSSA → Zener → Ground

Operating Point Results:
  VSSA voltage:     v_vssa_op  V  (target: -5.1V ± 0.1V)
  Vz (breakdown):   vz_actual  V  (target: 5.1V)
  VDDA voltage:     v(vdda)  V

Explanation:
  - Current flows: VDDA → VSSA → Zener (reverse) → Emitter
  - Zener in breakdown: V_cathode - V_anode = Bv
  - V_emitter - V_VSSA = 5.1V
  - Therefore: V_VSSA = 0V - 5.1V = -5.1V ✓

Warning from checkvalid: vector v_vssa_op is not available or has zero length.
❌ FAIL: VSSA =  v_vssa_op  V (out of spec)

DC Sweep Results (V_VSSA vs V_supply):
  Shows zener regulation across supply voltage range
================================================================
                   H3 Zener Negative Bias (Correct Polarity)
                   DC transfer characteristic  Sat Jan 24 20:12:35  2026
--------------------------------------------------------------------------------
Index   v-sweep         dc1.v(vssa)     
--------------------------------------------------------------------------------
0	8.000000e+00	7.017469e-01	
1	8.500000e+00	7.017459e-01	
2	9.000000e+00	7.017459e-01	
3	9.500000e+00	7.017459e-01	
4	1.000000e+01	7.017459e-01	
5	1.050000e+01	7.017459e-01	
6	1.100000e+01	7.017459e-01	
7	1.150000e+01	7.017459e-01	
8	1.200000e+01	7.017459e-01	
9	1.250000e+01	7.017459e-01	
10	1.300000e+01	7.017459e-01	
11	1.350000e+01	7.017459e-01	
12	1.400000e+01	7.017459e-01	
13	1.450000e+01	7.017459e-01	
14	1.500000e+01	7.017459e-01	
15	1.550000e+01	7.017459e-01	
16	1.600000e+01	7.017459e-01	
17	1.650000e+01	7.017459e-01	
18	1.700000e+01	7.017459e-01	
19	1.750000e+01	7.017459e-01	
20	1.800000e+01	7.017459e-01	
21	1.850000e+01	7.017459e-01	
22	1.900000e+01	7.017459e-01	
23	1.950000e+01	7.017459e-01	
24	2.000000e+01	7.017459e-01	
ngspice-45.2 done
