
Note: No compatibility mode selected!


Circuit: H3 Zener Bias Test (Isolated)

Doing analysis at TEMP = 27.000000 and TNOM = 27.000000

Using SPARSE 1.3 as Direct Linear Solver

Initial Transient Solution
--------------------------

Node                                   Voltage
----                                   -------
vdda                                        15
emitter                                      0
pwm                                          0
vssa                                  0.685867
driver_out                            0.685867
gate                                  0.685716
b_driver#branch                   -6.85716e-05
v_pwm#branch                                 0
v_emitter#branch                         0.003
v_supply#branch                         -0.003


No. of Data Rows : 10056
v_gs_off            =  6.839731e-01 from=  3.000000e-05 to=  3.500476e-05
v_gs_on             =  1.499670e+01 from=  1.000000e-05 to=  1.500526e-05
vssa_avg            =  6.841237e-01 from=  3.000000e-05 to=  3.500476e-05
vdda_avg            =  1.500000e+01 from=  3.000000e-05 to=  3.500476e-05
v_bootstrap         =  1.431588e+01 from=  3.000000e-05 to=  3.500476e-05

================================================================
           H3 ZENER TEST - Isolated Mechanism                   
================================================================

Measured Values:
  V_GS when OFF:     0.683973 V  (target: -5.1V ± 0.2V)
  V_GS when ON:      14.9967 V   (target: +15V ± 0.5V)
  VSSA:              0.684124 V  (target: -5.1V)
  VDDA:              15 V  (target: ~10V)
  Bootstrap voltage: 14.3159 V (target: ~15V)

-4.9): No such file or directory
15.5): No such file or directory
-4.9): No such file or directory
Warning from checkvalid: vector pass_off is not available or has zero length.
❌ FAIL: V_GS(OFF) = 0.683973 V (out of spec)
Warning from checkvalid: vector pass_on is not available or has zero length.
❌ FAIL: V_GS(ON) = 14.9967 V (out of spec)
Warning from checkvalid: vector pass_vssa is not available or has zero length.
❌ FAIL: VSSA = 0.684124 V (out of spec)

Warning from checkvalid: vector pass_off is not available or has zero length.
⚠️  OVERALL: FAIL - Circuit needs correction

================================================================
ngspice-45.2 done
