
Note: No compatibility mode selected!


Circuit: Dead-Time Circuit (H7 Fix)

Reducing trtol to 1 for xspice 'A' devices
Doing analysis at TEMP = 27.000000 and TNOM = 27.000000

Using SPARSE 1.3 as Direct Linear Solver

Initial Transient Solution
--------------------------

Node                                   Voltage
----                                   -------
vcc                                         15
in_a                                         0
in_b                                         0
dt_pin                                      15
delay_a                                      0
e_delay_a_int1                               0
e_delay_a_int2                               0
gate_a_int                                   0
out_a                                        0
delay_b                                      0
e_delay_b_int1                               0
e_delay_b_int2                               0
gate_b_int                                   0
out_b                                        0
be_delay_b#branch                            0
be_delay_a#branch                            0
e_out_b#branch                               0
e_delay_b#branch                             0
e_out_a#branch                               0
e_delay_a#branch                             0
v_in_b#branch                                0
v_in_a#branch                                0
v_cc#branch                         1.6263e-19
ae_delay_b#branch_1_0                        0
ae_delay_a#branch_1_0                        0


No. of Data Rows : 100078

  Measurements for Transient Analysis

t_a_fall            =   2.14327e-05
t_b_rise            =   3.79855e-05
t_dead              =  1.65528e-05
t_b_fall            =   4.14327e-05
t_a_rise            =   5.09945e-05
t_dead2             =  9.56174e-06
t_dead_avg          =  1.30572e-05
t_dead_ns           =  1.30572e+04
t_margin_ns         =  1.31122e+04

Warning from checkvalid: vector t_dead_ns is not available or has zero length.

Warning: command 'plot' is not available during batch simulation, ignored!
    You may use Gnuplot instead.

ngspice-45.2 done
