
Note: No compatibility mode selected!


Circuit: LMR51430 Ripple Check

Doing analysis at TEMP = 27.000000 and TNOM = 27.000000

Using SPARSE 1.3 as Direct Linear Solver
Operating point simulation skipped by 'uic',
  now using transient initial conditions.

No. of Data Rows : 175011

  Measurements for Transient Analysis

vout_final          =  4.792286e+00
vout_min            =  4.792087e+00 at=  9.498363e-03
vout_max            =  4.798876e+00 at=  9.001363e-03
ripple_calc         =  6.78930e-03
vout_pp             =  6.789304e-03 from=  9.000000e-03 to=  9.500000e-03
sw_avg              =  4.795609e+00 from=  9.000000e-03 to=  9.500001e-03

Warning from checkvalid: vector vout_final is not available or has zero length.

Warning: command 'plot' is not available during batch simulation, ignored!
    You may use Gnuplot instead.


Warning: command 'plot' is not available during batch simulation, ignored!
    You may use Gnuplot instead.

Doing analysis at TEMP = 27.000000 and TNOM = 27.000000

Using SPARSE 1.3 as Direct Linear Solver
Operating point simulation skipped by 'uic',
  now using transient initial conditions.

No. of Data Rows : 175011

  Measurements for Transient Analysis

vout_final          =  4.792286e+00
vout_min            =  4.792087e+00 at=  9.498363e-03
vout_max            =  4.798876e+00 at=  9.001363e-03
Netlist line no. 30:
insertnumber: fails.
  s = ".meas tran ripple_calc param=    6.789304248052908e-03   " u="  6.789304248052908e-03  " id=0
ripple_calc         =   failed
vout_pp             =  6.789304e-03 from=  9.000000e-03 to=  9.500000e-03
sw_avg              =  4.795609e+00 from=  9.000000e-03 to=  9.500001e-03


Total analysis time (seconds) = 2.02963

Total elapsed time (seconds) = 2.039 

Total DRAM available = 32768.000 MB.
DRAM currently available =  238.578 MB.
Maximum ngspice program size =   81.328 MB.
Current ngspice program size =   81.328 MB.

