Header
 CHECK KEYWORDS Warn
 Mesh DB "." "mesh"
End
Simulation
 Coordinate System = Cartesian 3D
 Simulation Type = Steady State
 Steady State Max Iterations = 8
End
Equation 1
 Active Solvers(1) = 1
End
Material 1
 Heat Conductivity = 350
 Density = 1
 Heat Capacity = 1
End
Body 1
 Target Bodies(1) = 1
 Equation = 1
 Material = 1
 Body Force = 1
End
Body 2
 Target Bodies(1) = 2
 Equation = 1
 Material = 1
 Body Force = 2
End
Body 3
 Target Bodies(1) = 3
 Equation = 1
 Material = 1
End
Body Force 1
 Heat Source = 879970278.20562160015106
End
Body Force 2
 Heat Source = 879970278.20562160015106
End
Solver 1
 Equation = Heat Equation
 Procedure = "HeatSolve" "HeatSolver"
 Variable = Temperature
 Linear System Solver = Direct
 Linear System Direct Method = umfpack
 Nonlinear System Max Iterations = 1
 Steady State Convergence Tolerance = 1e-9
 Calculate Loads = True
 Calculate Boundary Fluxes = True
End
Solver 2
 Exec Solver = After All
 Equation = SaveScalars
 Procedure = "SaveData" "SaveScalars"
 Variable 1 = Temperature
 Operator 1 = max
 Variable 2 = Temperature
 Operator 2 = min
 Filename = scalars.dat
End
Boundary Condition 1
 Target Boundaries(1) = 13
 Temperature = 373.15
 Save Scalars = True
End
