Header
 CHECK KEYWORDS Warn
 Mesh DB "." "mesh"
End
Simulation
 Coordinate System = Cartesian 3D
 Simulation Type = Steady State
 Steady State Max Iterations = 8
End
Equation 1
 Active Solvers(1) = 1
End
Material 1
 Heat Conductivity = 350
 Density = 1
 Heat Capacity = 1
End
Body 1
 Target Bodies(1) = 1
 Equation = 1
 Material = 1
End
Material 2
 Heat Conductivity = 350
 Density = 1
 Heat Capacity = 1
End
Body 2
 Target Bodies(1) = 2
 Equation = 1
 Material = 2
End
Material 3
 Heat Conductivity = 0.25
 Density = 1
 Heat Capacity = 1
End
Body 3
 Target Bodies(1) = 3
 Equation = 1
 Material = 3
End
Material 4
 Heat Conductivity = 50
 Density = 1
 Heat Capacity = 1
End
Body 4
 Target Bodies(1) = 4
 Equation = 1
 Material = 4
End
Material 5
 Heat Conductivity = 50
 Density = 1
 Heat Capacity = 1
End
Body 5
 Target Bodies(1) = 5
 Equation = 1
 Material = 5
End
Solver 1
 Equation = Heat Equation
 Procedure = "HeatSolve" "HeatSolver"
 Variable = Temperature
 Linear System Solver = Iterative
 Linear System Iterative Method = BiCGStab
 Linear System Preconditioning = ILU1
 Linear System Max Iterations = 10000
 Linear System Convergence Tolerance = 1e-12
 Linear System Abort Not Converged = True
 Nonlinear System Max Iterations = 1
 Steady State Convergence Tolerance = 1e-9
 Calculate Loads = True
 Calculate Boundary Fluxes = True
End
Solver 2
 Exec Solver = After All
 Equation = SaveScalars
 Procedure = "SaveData" "SaveScalars"
 Variable 1 = Temperature
 Operator 1 = max
 Variable 2 = Temperature
 Operator 2 = min
 Filename = scalars.dat
End
Boundary Condition 1
 Target Boundaries(1) = 13
 Temperature = 333.15
 Save Scalars = True
End
Boundary Condition 2
 Target Boundaries(1) = 14
 Heat Flux = 79598.84404388714756
End
Boundary Condition 3
 Target Boundaries(1) = 15
 Heat Flux = 79598.84404388714756
End
