
Note: No compatibility mode selected!


Circuit: Current Transformer Model Validation

Doing analysis at TEMP = 27.000000 and TNOM = 27.000000

Using SPARSE 1.3 as Direct Linear Solver
Operating point simulation skipped by 'uic',
  now using transient initial conditions.

No. of Data Rows : 1515

  Measurements for Transient Analysis

v_sec_peak          =  2.499997e+00 at=  2.071498e-04
v_sec_min           =  -2.499997e+00 at=  1.071498e-04
v_sec_pp            =  4.99999e+00


Total analysis time (seconds) = 0.003127

Total elapsed time (seconds) = 0.007 

Total DRAM available = 36864.000 MB.
DRAM currently available =  946.062 MB.
Maximum ngspice program size =    9.891 MB.
Current ngspice program size =    9.891 MB.

